dss/export/hidra-caso1-modificado/Load.dss
New Load.300162 phases=3 bus1=3819265_p_2.1.2.3.0 kv=0.4 kw=250.05 pf=1.0 status=variable model=1 CVRwatts=1.0 CVRvars=2.0 class=1 daily=PC01_IndMin2024_30 conn=LL
New Load.300165 phases=3 bus1=3810140_p_2.1.2.3.0 kv=0.4 kw=76.164 pf=1.0 status=variable model=1 CVRwatts=1.0 CVRvars=2.0 class=1 daily=PC01_IndMin2024_30 conn=LL
New Load.300166 phases=3 bus1=3810149_p_2.1.2.3.0 kv=0.4 kw=84.115 pf=1.0 status=variable model=1 CVRwatts=1.0 CVRvars=2.0 class=1 daily=PC01_IndMin2024_30 conn=LL
New Load.300167 phases=3 bus1=3838518_p_2.1.2.3.0 kv=0.4 kw=25.465 pf=1.0 status=variable model=1 CVRwatts=1.0 CVRvars=2.0 class=1 daily=PC01_IndMin2024_30 conn=LL
New Load.300168 phases=3 bus1=3747428_p_2.1.2.3.0 kv=0.4 kw=18.205 pf=1.0 status=variable model=1 CVRwatts=1.0 CVRvars=2.0 class=1 daily=PC01_IndMin2024_30 conn=LL
New Load.300170 phases=3 bus1=3806703_p_2.1.2.3.0 kv=0.4 kw=3.226 pf=1.0 status=variable model=1 CVRwatts=1.0 CVRvars=2.0 class=1 daily=PC01_IndMin2024_30 conn=LL
New Load.300171 phases=3 bus1=3806706_p_2.1.2.3.0 kv=0.4 kw=260.532 pf=1.0 status=variable model=1 CVRwatts=1.0 CVRvars=2.0 class=1 daily=PC01_IndMin2024_30 conn=LL
New Load.300180 phases=3 bus1=3812590_p_2.1.2.3.0 kv=0.4 kw=46.321 pf=1.0 status=variable model=1 CVRwatts=1.0 CVRvars=2.0 class=1 daily=PC01_IndMin2024_30 conn=LL
New Load.300181 phases=3 bus1=3806721_p_2.1.2.3.0 kv=0.4 kw=23.967 pf=1.0 status=variable model=1 CVRwatts=1.0 CVRvars=2.0 class=1 daily=PC01_IndMin2024_30 conn=LL
New Load.300183 phases=3 bus1=3823263_p_2.1.2.3.0 kv=0.4 kw=11.407 pf=1.0 status=variable model=1 CVRwatts=1.0 CVRvars=2.0 class=1 daily=PC01_IndMin2024_30 conn=LL
New Load.300185 phases=3 bus1=3808184_p_2.1.2.3.0 kv=0.4 kw=136.202 pf=1.0 status=variable model=1 CVRwatts=1.0 CVRvars=2.0 class=1 daily=PC01_IndMin2024_30 conn=LL
New Load.300188 phases=3 bus1=4002335_p_2.1.2.3.0 kv=0.4 kw=17.399 pf=1.0 status=variable model=1 CVRwatts=1.0 CVRvars=2.0 class=1 daily=PC01_IndMin2024_30 conn=LL
New Load.300189 phases=3 bus1=14070073_p_2.1.2.3.0 kv=0.4 kw=4.839 pf=1.0 status=variable model=1 CVRwatts=1.0 CVRvars=2.0 class=1 daily=PC01_IndMin2024_30 conn=LL
New Load.300190 phases=3 bus1=4002336_p_2.1.2.3.0 kv=0.4 kw=6.913 pf=1.0 status=variable model=1 CVRwatts=1.0 CVRvars=2.0 class=1 daily=PC01_IndMin2024_30 conn=LL
New Load.300191 phases=3 bus1=3806768_p_2.1.2.3.0 kv=0.4 kw=0.0 pf=0.88 status=variable model=1 CVRwatts=1.0 CVRvars=2.0 class=1 daily=PC01_IndMin2024_30 conn=LL
New Load.300192 phases=3 bus1=3806374_p_2.1.2.3.0 kv=0.4 kw=0.0 pf=0.88 status=variable model=1 CVRwatts=1.0 CVRvars=2.0 class=1 daily=PC01_IndMin2024_30 conn=LL
New Load.300193 phases=3 bus1=3817748_p_2.1.2.3.0 kv=0.4 kw=52.659 pf=1.0 status=variable model=1 CVRwatts=1.0 CVRvars=2.0 class=1 daily=PC01_IndMin2024_30 conn=LL
New Load.300194 phases=3 bus1=3806239_p_2.1.2.3.0 kv=0.4 kw=0.0 pf=0.88 status=variable model=1 CVRwatts=1.0 CVRvars=2.0 class=1 daily=PC01_IndMin2024_30 conn=LL
New Load.300200 phases=3 bus1=3822095_p_2.1.2.3.0 kv=0.4 kw=103.359 pf=1.0 status=variable model=1 CVRwatts=1.0 CVRvars=2.0 class=1 daily=PC01_IndMin2024_30 conn=LL
New Load.300204 phases=3 bus1=3806259_p_2.1.2.3.0 kv=0.4 kw=0.0 pf=0.88 status=variable model=1 CVRwatts=1.0 CVRvars=2.0 class=1 daily=PC01_IndMin2024_30 conn=LL
New Load.300215 phases=3 bus1=3808226_p_2.1.2.3.0 kv=0.4 kw=18.206 pf=1.0 status=variable model=1 CVRwatts=1.0 CVRvars=2.0 class=1 daily=PC01_IndMin2024_30 conn=LL
New Load.300217 phases=3 bus1=3832430_p_2.1.2.3.0 kv=0.4 kw=14.172 pf=1.0 status=variable model=1 CVRwatts=1.0 CVRvars=2.0 class=1 daily=PC01_IndMin2024_30 conn=LL
New Load.300220 phases=3 bus1=3837814_p_2.1.2.3.0 kv=0.4 kw=0.0 pf=0.88 status=variable model=1 CVRwatts=1.0 CVRvars=2.0 class=1 daily=PC01_IndMin2024_30 conn=LL
New Load.300221 phases=3 bus1=3812828_p_2.1.2.3.0 kv=0.4 kw=5.761 pf=1.0 status=variable model=1 CVRwatts=1.0 CVRvars=2.0 class=1 daily=PC01_IndMin2024_30 conn=LL
New Load.300225 phases=3 bus1=3806227_p_2.1.2.3.0 kv=0.4 kw=22.008 pf=1.0 status=variable model=1 CVRwatts=1.0 CVRvars=2.0 class=1 daily=PC01_IndMin2024_30 conn=LL
New Load.300226 phases=3 bus1=3833751_p_2.1.2.3.0 kv=0.4 kw=1.037 pf=1.0 status=variable model=1 CVRwatts=1.0 CVRvars=2.0 class=1 daily=PC01_IndMin2024_30 conn=LL
New Load.300227 phases=3 bus1=4002387_p_2.1.2.3.0 kv=0.4 kw=5.185 pf=1.0 status=variable model=1 CVRwatts=1.0 CVRvars=2.0 class=1 daily=PC01_IndMin2024_30 conn=LL
New Load.300231 phases=3 bus1=3807864_p_2.1.2.3.0 kv=0.4 kw=202.806 pf=1.0 status=variable model=1 CVRwatts=1.0 CVRvars=2.0 class=1 daily=PC01_IndMin2024_30 conn=LL
New Load.300244 phases=3 bus1=3823306_p_2.1.2.3.0 kv=0.4 kw=45.285 pf=1.0 status=variable model=1 CVRwatts=1.0 CVRvars=2.0 class=1 daily=PC01_IndMin2024_30 conn=LL
New Load.300245 phases=3 bus1=4002388_p_2.1.2.3.0 kv=0.4 kw=1.498 pf=1.0 status=variable model=1 CVRwatts=1.0 CVRvars=2.0 class=1 daily=PC01_IndMin2024_30 conn=LL
New Load.300246 phases=3 bus1=3808444_p_2.1.2.3.0 kv=0.4 kw=11.753 pf=1.0 status=variable model=1 CVRwatts=1.0 CVRvars=2.0 class=1 daily=PC01_IndMin2024_30 conn=LL
New Load.300247 phases=3 bus1=3808199_p_2.1.2.3.0 kv=0.4 kw=109.238 pf=1.0 status=variable model=1 CVRwatts=1.0 CVRvars=2.0 class=1 daily=PC01_IndMin2024_30 conn=LL
New Load.301698 phases=3 bus1=3812380_p_2.1.2.3.0 kv=0.4 kw=0.0 pf=0.88 status=variable model=1 CVRwatts=1.0 CVRvars=2.0 class=1 daily=PC01_IndMin2024_30 conn=LL
New Load.301733 phases=3 bus1=3747858_p_2.1.2.3.0 kv=0.4 kw=0.0 pf=0.88 status=variable model=1 CVRwatts=1.0 CVRvars=2.0 class=1 daily=PC01_IndMin2024_30 conn=LL
New Load.301774 phases=3 bus1=3832429_p_2.1.2.3.0 kv=0.4 kw=24.312 pf=1.0 status=variable model=1 CVRwatts=1.0 CVRvars=2.0 class=1 daily=PC01_IndMin2024_30 conn=LL
New Load.301775 phases=3 bus1=3813328_p_2.1.2.3.0 kv=0.4 kw=56.0 pf=1.0 status=variable model=1 CVRwatts=1.0 CVRvars=2.0 class=1 daily=PC01_IndMin2024_30 conn=LL
New Load.301776 phases=3 bus1=3813276_p_2.1.2.3.0 kv=0.4 kw=38.946 pf=1.0 status=variable model=1 CVRwatts=1.0 CVRvars=2.0 class=1 daily=PC01_IndMin2024_30 conn=LL
New Load.301777 phases=3 bus1=3810166_p_2.1.2.3.0 kv=0.4 kw=13.942 pf=1.0 status=variable model=1 CVRwatts=1.0 CVRvars=2.0 class=1 daily=PC01_IndMin2024_30 conn=LL
New Load.301778 phases=3 bus1=3813283_p_2.1.2.3.0 kv=0.4 kw=36.987 pf=1.0 status=variable model=1 CVRwatts=1.0 CVRvars=2.0 class=1 daily=PC01_IndMin2024_30 conn=LL
New Load.301858 phases=3 bus1=3829947_p_2.1.2.3.0 kv=0.4 kw=22.354 pf=1.0 status=variable model=1 CVRwatts=1.0 CVRvars=2.0 class=1 daily=PC01_IndMin2024_30 conn=LL
New Load.301881 phases=3 bus1=3844387_p_2.1.2.3.0 kv=0.4 kw=2.995 pf=1.0 status=variable model=1 CVRwatts=1.0 CVRvars=2.0 class=1 daily=PC01_IndMin2024_30 conn=LL
New Load.301908 phases=3 bus1=4002471_p_2.1.2.3.0 kv=0.4 kw=0.0 pf=0.88 status=variable model=1 CVRwatts=1.0 CVRvars=2.0 class=1 daily=PC01_IndMin2024_30 conn=LL
New Load.301938 phases=3 bus1=3747406_p_2.1.2.3.0 kv=0.4 kw=88.151 pf=1.0 status=variable model=1 CVRwatts=1.0 CVRvars=2.0 class=1 daily=PC01_IndMin2024_30 conn=LL
New Load.302313 phases=3 bus1=3817188_p_2.1.2.3.0 kv=0.4 kw=6.222 pf=1.0 status=variable model=1 CVRwatts=1.0 CVRvars=2.0 class=1 daily=PC01_IndMin2024_30 conn=LL
New Load.302318 phases=3 bus1=3832423_p_2.1.2.3.0 kv=0.4 kw=5.185 pf=1.0 status=variable model=1 CVRwatts=1.0 CVRvars=2.0 class=1 daily=PC01_IndMin2024_30 conn=LL
New Load.302407 phases=3 bus1=3817921_p_2.1.2.3.0 kv=0.4 kw=109.354 pf=1.0 status=variable model=1 CVRwatts=1.0 CVRvars=2.0 class=1 daily=PC01_IndMin2024_30 conn=LL
New Load.302434 phases=3 bus1=4002623_p_2.1.2.3.0 kv=0.4 kw=0.0 pf=0.88 status=variable model=1 CVRwatts=1.0 CVRvars=2.0 class=1 daily=PC01_IndMin2024_30 conn=LL
New Load.302565 phases=3 bus1=13602024_p_2.1.2.3.0 kv=0.4 kw=10.025 pf=1.0 status=variable model=1 CVRwatts=1.0 CVRvars=2.0 class=1 daily=PC01_IndMin2024_30 conn=LL
New Load.302566 phases=3 bus1=13981349_p_2.1.2.3.0 kv=0.4 kw=0.0 pf=0.88 status=variable model=1 CVRwatts=1.0 CVRvars=2.0 class=1 daily=PC01_IndMin2024_30 conn=LL
New Load.302567 phases=3 bus1=3819054_p_2.1.2.3.0 kv=0.4 kw=0.0 pf=0.88 status=variable model=1 CVRwatts=1.0 CVRvars=2.0 class=1 daily=PC01_IndMin2024_30 conn=LL
New Load.302568 phases=3 bus1=3819053_p_2.1.2.3.0 kv=0.4 kw=31.687 pf=1.0 status=variable model=1 CVRwatts=1.0 CVRvars=2.0 class=1 daily=PC01_IndMin2024_30 conn=LL
New Load.302569 phases=3 bus1=3819057_p_2.1.2.3.0 kv=0.4 kw=4.493 pf=1.0 status=variable model=1 CVRwatts=1.0 CVRvars=2.0 class=1 daily=PC01_IndMin2024_30 conn=LL
New Load.302570 phases=3 bus1=3832428_p_2.1.2.3.0 kv=0.4 kw=2.419 pf=1.0 status=variable model=1 CVRwatts=1.0 CVRvars=2.0 class=1 daily=PC01_IndMin2024_30 conn=LL
New Load.302579 phases=3 bus1=13981284_p_2.1.2.3.0 kv=0.4 kw=0.0 pf=0.88 status=variable model=1 CVRwatts=1.0 CVRvars=2.0 class=1 daily=PC01_IndMin2024_30 conn=LL
New Load.302581 phases=3 bus1=3819161_p_2.1.2.3.0 kv=0.4 kw=41.483 pf=1.0 status=variable model=1 CVRwatts=1.0 CVRvars=2.0 class=1 daily=PC01_IndMin2024_30 conn=LL
New Load.302631 phases=3 bus1=3819554_p_2.1.2.3.0 kv=0.4 kw=6.913 pf=1.0 status=variable model=1 CVRwatts=1.0 CVRvars=2.0 class=1 daily=PC01_IndMin2024_30 conn=LL
New Load.302647 phases=3 bus1=3819652_p_2.1.2.3.0 kv=0.4 kw=97.024 pf=1.0 status=variable model=1 CVRwatts=1.0 CVRvars=2.0 class=1 daily=PC01_IndMin2024_30 conn=LL
New Load.302676 phases=3 bus1=3819909_p_2.1.2.3.0 kv=0.4 kw=30.189 pf=1.0 status=variable model=1 CVRwatts=1.0 CVRvars=2.0 class=1 daily=PC01_IndMin2024_30 conn=LL
New Load.302684 phases=3 bus1=3819925_p_2.1.2.3.0 kv=0.4 kw=28.115 pf=1.0 status=variable model=1 CVRwatts=1.0 CVRvars=2.0 class=1 daily=PC01_IndMin2024_30 conn=LL
New Load.302866 phases=3 bus1=3821714_p_2.1.2.3.0 kv=0.4 kw=0.0 pf=0.88 status=variable model=1 CVRwatts=1.0 CVRvars=2.0 class=1 daily=PC01_IndMin2024_30 conn=LL
New Load.302871 phases=3 bus1=3821745_p_2.1.2.3.0 kv=0.4 kw=52.774 pf=1.0 status=variable model=1 CVRwatts=1.0 CVRvars=2.0 class=1 daily=PC01_IndMin2024_30 conn=LL
New Load.302943 phases=3 bus1=3822157_p_2.1.2.3.0 kv=0.4 kw=200.268 pf=1.0 status=variable model=1 CVRwatts=1.0 CVRvars=2.0 class=1 daily=PC01_IndMin2024_30 conn=LL
New Load.303004 phases=3 bus1=3843802_p_2.1.2.3.0 kv=0.4 kw=13.366 pf=1.0 status=variable model=1 CVRwatts=1.0 CVRvars=2.0 class=1 daily=PC01_IndMin2024_30 conn=LL
New Load.303005 phases=3 bus1=3822777_p_2.1.2.3.0 kv=0.4 kw=0.0 pf=0.88 status=variable model=1 CVRwatts=1.0 CVRvars=2.0 class=1 daily=PC01_IndMin2024_30 conn=LL
New Load.303009 phases=3 bus1=4002761_p_2.1.2.3.0 kv=0.4 kw=0.0 pf=0.88 status=variable model=1 CVRwatts=1.0 CVRvars=2.0 class=1 daily=PC01_IndMin2024_30 conn=LL
New Load.303079 phases=3 bus1=3823305_p_2.1.2.3.0 kv=0.4 kw=143.231 pf=1.0 status=variable model=1 CVRwatts=1.0 CVRvars=2.0 class=1 daily=PC01_IndMin2024_30 conn=LL
New Load.303083 phases=3 bus1=3823327_p_2.1.2.3.0 kv=0.4 kw=53.121 pf=1.0 status=variable model=1 CVRwatts=1.0 CVRvars=2.0 class=1 daily=PC01_IndMin2024_30 conn=LL
New Load.303092 phases=3 bus1=3823362_p_2.1.2.3.0 kv=0.4 kw=22.469 pf=1.0 status=variable model=1 CVRwatts=1.0 CVRvars=2.0 class=1 daily=PC01_IndMin2024_30 conn=LL
New Load.303131 phases=3 bus1=3823641_p_2.1.2.3.0 kv=0.4 kw=75.244 pf=1.0 status=variable model=1 CVRwatts=1.0 CVRvars=2.0 class=1 daily=PC01_IndMin2024_30 conn=LL
New Load.303193 phases=3 bus1=3824296_p_2.1.2.3.0 kv=0.4 kw=0.0 pf=0.88 status=variable model=1 CVRwatts=1.0 CVRvars=2.0 class=1 daily=PC01_IndMin2024_30 conn=LL
New Load.303316 phases=3 bus1=3825272_p_2.1.2.3.0 kv=0.4 kw=2.65 pf=1.0 status=variable model=1 CVRwatts=1.0 CVRvars=2.0 class=1 daily=PC01_IndMin2024_30 conn=LL
New Load.303731 phases=3 bus1=3843796_p_2.1.2.3.0 kv=0.4 kw=20.625 pf=1.0 status=variable model=1 CVRwatts=1.0 CVRvars=2.0 class=1 daily=PC01_IndMin2024_30 conn=LL
New Load.303919 phases=3 bus1=3829951_p_2.1.2.3.0 kv=0.4 kw=0.0 pf=0.88 status=variable model=1 CVRwatts=1.0 CVRvars=2.0 class=1 daily=PC01_IndMin2024_30 conn=LL
New Load.304007 phases=3 bus1=3830690_p_2.1.2.3.0 kv=0.4 kw=29.383 pf=1.0 status=variable model=1 CVRwatts=1.0 CVRvars=2.0 class=1 daily=PC01_IndMin2024_30 conn=LL
New Load.304122 phases=3 bus1=3843811_p_2.1.2.3.0 kv=0.4 kw=0.691 pf=1.0 status=variable model=1 CVRwatts=1.0 CVRvars=2.0 class=1 daily=PC01_IndMin2024_30 conn=LL
New Load.304123 phases=3 bus1=3831406_p_2.1.2.3.0 kv=0.4 kw=0.0 pf=0.88 status=variable model=1 CVRwatts=1.0 CVRvars=2.0 class=1 daily=PC01_IndMin2024_30 conn=LL
New Load.304124 phases=3 bus1=3831409_p_2.1.2.3.0 kv=0.4 kw=0.0 pf=0.88 status=variable model=1 CVRwatts=1.0 CVRvars=2.0 class=1 daily=PC01_IndMin2024_30 conn=LL
New Load.304264 phases=3 bus1=3832353_p_2.1.2.3.0 kv=0.4 kw=46.438 pf=1.0 status=variable model=1 CVRwatts=1.0 CVRvars=2.0 class=1 daily=PC01_IndMin2024_30 conn=LL
New Load.304431 phases=3 bus1=3833742_p_2.1.2.3.0 kv=0.4 kw=11.753 pf=1.0 status=variable model=1 CVRwatts=1.0 CVRvars=2.0 class=1 daily=PC01_IndMin2024_30 conn=LL
New Load.304433 phases=3 bus1=3833749_p_2.1.2.3.0 kv=0.4 kw=34.107 pf=1.0 status=variable model=1 CVRwatts=1.0 CVRvars=2.0 class=1 daily=PC01_IndMin2024_30 conn=LL
New Load.304434 phases=3 bus1=3833769_p_2.1.2.3.0 kv=0.4 kw=51.852 pf=1.0 status=variable model=1 CVRwatts=1.0 CVRvars=2.0 class=1 daily=PC01_IndMin2024_30 conn=LL
New Load.304451 phases=3 bus1=3833877_p_2.1.2.3.0 kv=0.4 kw=554.94 pf=1.0 status=variable model=1 CVRwatts=1.0 CVRvars=2.0 class=1 daily=PC01_IndMin2024_30 conn=LL
New Load.304491 phases=3 bus1=3834146_p_2.1.2.3.0 kv=0.4 kw=97.598 pf=1.0 status=variable model=1 CVRwatts=1.0 CVRvars=2.0 class=1 daily=PC01_IndMin2024_30 conn=LL
New Load.304492 phases=3 bus1=3834151_p_2.1.2.3.0 kv=0.4 kw=2.995 pf=1.0 status=variable model=1 CVRwatts=1.0 CVRvars=2.0 class=1 daily=PC01_IndMin2024_30 conn=LL
New Load.304554 phases=3 bus1=3834761_p_2.1.2.3.0 kv=0.4 kw=21.086 pf=1.0 status=variable model=1 CVRwatts=1.0 CVRvars=2.0 class=1 daily=PC01_IndMin2024_30 conn=LL
New Load.304601 phases=3 bus1=3835138_p_2.1.2.3.0 kv=0.4 kw=129.286 pf=1.0 status=variable model=1 CVRwatts=1.0 CVRvars=2.0 class=1 daily=PC01_IndMin2024_30 conn=LL
New Load.304632 phases=3 bus1=3835272_p_2.1.2.3.0 kv=0.4 kw=261.573 pf=1.0 status=variable model=1 CVRwatts=1.0 CVRvars=2.0 class=1 daily=PC01_IndMin2024_30 conn=LL
New Load.304766 phases=3 bus1=3836499_p_2.1.2.3.0 kv=0.4 kw=13.251 pf=1.0 status=variable model=1 CVRwatts=1.0 CVRvars=2.0 class=1 daily=PC01_IndMin2024_30 conn=LL
New Load.304815 phases=3 bus1=3836995_p_2.1.2.3.0 kv=0.4 kw=43.44 pf=1.0 status=variable model=1 CVRwatts=1.0 CVRvars=2.0 class=1 daily=PC01_IndMin2024_30 conn=LL
New Load.304884 phases=3 bus1=3837609_p_2.1.2.3.0 kv=0.4 kw=46.436 pf=1.0 status=variable model=1 CVRwatts=1.0 CVRvars=2.0 class=1 daily=PC01_IndMin2024_30 conn=LL
New Load.304908 phases=3 bus1=3837992_p_2.1.2.3.0 kv=0.4 kw=0.0 pf=0.88 status=variable model=1 CVRwatts=1.0 CVRvars=2.0 class=1 daily=PC01_IndMin2024_30 conn=LL
New Load.304909 phases=3 bus1=3837995_p_2.1.2.3.0 kv=0.4 kw=2.419 pf=1.0 status=variable model=1 CVRwatts=1.0 CVRvars=2.0 class=1 daily=PC01_IndMin2024_30 conn=LL
New Load.305208 phases=3 bus1=3998784_p_2.1.2.3.0 kv=0.4 kw=2.995 pf=1.0 status=variable model=1 CVRwatts=1.0 CVRvars=2.0 class=1 daily=PC01_IndMin2024_30 conn=LL
New Load.305246 phases=3 bus1=3999222_p_2.1.2.3.0 kv=0.4 kw=0.0 pf=0.88 status=variable model=1 CVRwatts=1.0 CVRvars=2.0 class=1 daily=PC01_IndMin2024_30 conn=LL
New Load.314027 phases=3 bus1=3995136_p_2.1.2.3.0 kv=0.4 kw=0.0 pf=0.88 status=variable model=1 CVRwatts=1.0 CVRvars=2.0 class=1 daily=PC01_IndMin2024_30 conn=LL
New Load.314088 phases=3 bus1=3997578_p_2.1.2.3.0 kv=0.4 kw=7.259 pf=1.0 status=variable model=1 CVRwatts=1.0 CVRvars=2.0 class=1 daily=PC01_IndMin2024_30 conn=LL
New Load.314200 phases=3 bus1=14016095_p_2.1.2.3.0 kv=0.4 kw=24.889 pf=1.0 status=variable model=1 CVRwatts=1.0 CVRvars=2.0 class=1 daily=PC01_IndMin2024_30 conn=LL
New Load.314201 phases=3 bus1=14016261_p_2.1.2.3.0 kv=0.4 kw=25.234 pf=1.0 status=variable model=1 CVRwatts=1.0 CVRvars=2.0 class=1 daily=PC01_IndMin2024_30 conn=LL
New Load.314320 phases=3 bus1=16370837_p_2.1.2.3.0 kv=0.4 kw=13.596 pf=1.0 status=variable model=1 CVRwatts=1.0 CVRvars=2.0 class=1 daily=PC01_IndMin2024_30 conn=LL
New Load.314323 phases=3 bus1=3832397_p_2.1.2.3.0 kv=0.4 kw=0.0 pf=0.88 status=variable model=1 CVRwatts=1.0 CVRvars=2.0 class=1 daily=PC01_IndMin2024_30 conn=LL
New Load.323119 phases=3 bus1=3806352_p_2.1.2.3.0 kv=0.4 kw=6.452 pf=1.0 status=variable model=1 CVRwatts=1.0 CVRvars=2.0 class=1 daily=PC01_IndMin2024_30 conn=LL
New Load.323409 phases=3 bus1=3805129_p_2.1.2.3.0 kv=0.4 kw=0.46 pf=1.0 status=variable model=1 CVRwatts=1.0 CVRvars=2.0 class=1 daily=PC01_IndMin2024_30 conn=LL
New Load.323482 phases=3 bus1=3805226_p_2.1.2.3.0 kv=0.4 kw=0.0 pf=0.88 status=variable model=1 CVRwatts=1.0 CVRvars=2.0 class=1 daily=PC01_IndMin2024_30 conn=LL
New Load.323501 phases=3 bus1=3819344_p_2.1.2.3.0 kv=0.4 kw=27.078 pf=1.0 status=variable model=1 CVRwatts=1.0 CVRvars=2.0 class=1 daily=PC01_IndMin2024_30 conn=LL
New Load.327897 phases=3 bus1=3827627_p_2.1.2.3.0 kv=0.4 kw=693.112 pf=1.0 status=variable model=1 CVRwatts=1.0 CVRvars=2.0 class=1 daily=PC01_IndMin2024_30 conn=LL
